&OBST XB = -0.1, 0.1, -2.0, 2.0, -0.1, 0.1 /
&OBST XB = 0.1, -0.1, -2.0, 2.0, -0.1, 0.1 /
&OBST XB = -0.2, 0.2, -2.0, 2.0, -0.1, 0.1 /
&OBST XB = 0.2, -0.2, -2.0, 2.0, -0.1, 0.1 /
&OBST XB = -0.30000000000000004, 0.30000000000000004, -2.0, 2.0, -0.1, 0.1 /
&OBST XB = 0.30000000000000004, -0.30000000000000004, -2.0, 2.0, -0.1, 0.1 /
&OBST XB = -0.4, 0.4, -2.0, 2.0, -0.1, 0.1 /
&OBST XB = 0.4, -0.4, -2.0, 2.0, -0.1, 0.1 /
&OBST XB = -0.5, 0.5, -2.0, 2.0, -0.1, 0.1 /
&OBST XB = 0.5, -0.5, -2.0, 2.0, -0.1, 0.1 /
&OBST XB = -0.6000000000000001, 0.6000000000000001, -2.0, 2.0, -0.1, 0.1 /
&OBST XB = 0.6000000000000001, -0.6000000000000001, -2.0, 2.0, -0.1, 0.1 /
&OBST XB = -0.7000000000000001, 0.7000000000000001, -1.9000000000000001, 1.9000000000000001, -0.1, 0.1 /
&OBST XB = 0.7000000000000001, -0.7000000000000001, -1.9000000000000001, 1.9000000000000001, -0.1, 0.1 /
&OBST XB = -0.8, 0.8, -1.9000000000000001, 1.9000000000000001, -0.1, 0.1 /
&OBST XB = 0.8, -0.8, -1.9000000000000001, 1.9000000000000001, -0.1, 0.1 /
&OBST XB = -0.9, 0.9, -1.9000000000000001, 1.9000000000000001, -0.1, 0.1 /
&OBST XB = 0.9, -0.9, -1.9000000000000001, 1.9000000000000001, -0.1, 0.1 /
&OBST XB = -1.0, 1.0, -1.8, 1.8, -0.1, 0.1 /
&OBST XB = 1.0, -1.0, -1.8, 1.8, -0.1, 0.1 /
&OBST XB = -1.1, 1.1, -1.8, 1.8, -0.1, 0.1 /
&OBST XB = 1.1, -1.1, -1.8, 1.8, -0.1, 0.1 /
&OBST XB = -1.2000000000000002, 1.2000000000000002, -1.7000000000000002, 1.7000000000000002, -0.1, 0.1 /
&OBST XB = 1.2000000000000002, -1.2000000000000002, -1.7000000000000002, 1.7000000000000002, -0.1, 0.1 /
&OBST XB = -1.3, 1.3, -1.6, 1.6, -0.1, 0.1 /
&OBST XB = 1.3, -1.3, -1.6, 1.6, -0.1, 0.1 /
&OBST XB = -1.4000000000000001, 1.4000000000000001, -1.5, 1.5, -0.1, 0.1 /
&OBST XB = 1.4000000000000001, -1.4000000000000001, -1.5, 1.5, -0.1, 0.1 /
&OBST XB = -1.5, 1.5, -1.4000000000000001, 1.4000000000000001, -0.1, 0.1 /
&OBST XB = 1.5, -1.5, -1.4000000000000001, 1.4000000000000001, -0.1, 0.1 /
&OBST XB = -1.6, 1.6, -1.3, 1.3, -0.1, 0.1 /
&OBST XB = 1.6, -1.6, -1.3, 1.3, -0.1, 0.1 /
&OBST XB = -1.7000000000000002, 1.7000000000000002, -1.2000000000000002, 1.2000000000000002, -0.1, 0.1 /
&OBST XB = 1.7000000000000002, -1.7000000000000002, -1.2000000000000002, 1.2000000000000002, -0.1, 0.1 /
&OBST XB = -1.8, 1.8, -1.0, 1.0, -0.1, 0.1 /
&OBST XB = 1.8, -1.8, -1.0, 1.0, -0.1, 0.1 /
&OBST XB = -1.9000000000000001, 1.9000000000000001, -0.8, 0.8, -0.1, 0.1 /
&OBST XB = 1.9000000000000001, -1.9000000000000001, -0.8, 0.8, -0.1, 0.1 /
&OBST XB = -2.0, 2.0, -0.5, 0.5, -0.1, 0.1 /
&OBST XB = 2.0, -2.0, -0.5, 0.5, -0.1, 0.1 /
&OBST XB = -0.1, 0.1, -2.0, 2.0, -0.2, 0.2 /
&OBST XB = 0.1, -0.1, -2.0, 2.0, -0.2, 0.2 /
&OBST XB = -0.2, 0.2, -2.0, 2.0, -0.2, 0.2 /
&OBST XB = 0.2, -0.2, -2.0, 2.0, -0.2, 0.2 /
&OBST XB = -0.30000000000000004, 0.30000000000000004, -2.0, 2.0, -0.2, 0.2 /
&OBST XB = 0.30000000000000004, -0.30000000000000004, -2.0, 2.0, -0.2, 0.2 /
&OBST XB = -0.4, 0.4, -2.0, 2.0, -0.2, 0.2 /
&OBST XB = 0.4, -0.4, -2.0, 2.0, -0.2, 0.2 /
&OBST XB = -0.5, 0.5, -2.0, 2.0, -0.2, 0.2 /
&OBST XB = 0.5, -0.5, -2.0, 2.0, -0.2, 0.2 /
&OBST XB = -0.6000000000000001, 0.6000000000000001, -2.0, 2.0, -0.2, 0.2 /
&OBST XB = 0.6000000000000001, -0.6000000000000001, -2.0, 2.0, -0.2, 0.2 /
&OBST XB = -0.7000000000000001, 0.7000000000000001, -1.9000000000000001, 1.9000000000000001, -0.2, 0.2 /
&OBST XB = 0.7000000000000001, -0.7000000000000001, -1.9000000000000001, 1.9000000000000001, -0.2, 0.2 /
&OBST XB = -0.8, 0.8, -1.9000000000000001, 1.9000000000000001, -0.2, 0.2 /
&OBST XB = 0.8, -0.8, -1.9000000000000001, 1.9000000000000001, -0.2, 0.2 /
&OBST XB = -0.9, 0.9, -1.9000000000000001, 1.9000000000000001, -0.2, 0.2 /
&OBST XB = 0.9, -0.9, -1.9000000000000001, 1.9000000000000001, -0.2, 0.2 /
&OBST XB = -1.0, 1.0, -1.8, 1.8, -0.2, 0.2 /
&OBST XB = 1.0, -1.0, -1.8, 1.8, -0.2, 0.2 /
&OBST XB = -1.1, 1.1, -1.7000000000000002, 1.7000000000000002, -0.2, 0.2 /
&OBST XB = 1.1, -1.1, -1.7000000000000002, 1.7000000000000002, -0.2, 0.2 /
&OBST XB = -1.2000000000000002, 1.2000000000000002, -1.7000000000000002, 1.7000000000000002, -0.2, 0.2 /
&OBST XB = 1.2000000000000002, -1.2000000000000002, -1.7000000000000002, 1.7000000000000002, -0.2, 0.2 /
&OBST XB = -1.3, 1.3, -1.6, 1.6, -0.2, 0.2 /
&OBST XB = 1.3, -1.3, -1.6, 1.6, -0.2, 0.2 /
&OBST XB = -1.4000000000000001, 1.4000000000000001, -1.5, 1.5, -0.2, 0.2 /
&OBST XB = 1.4000000000000001, -1.4000000000000001, -1.5, 1.5, -0.2, 0.2 /
&OBST XB = -1.5, 1.5, -1.4000000000000001, 1.4000000000000001, -0.2, 0.2 /
&OBST XB = 1.5, -1.5, -1.4000000000000001, 1.4000000000000001, -0.2, 0.2 /
&OBST XB = -1.6, 1.6, -1.3, 1.3, -0.2, 0.2 /
&OBST XB = 1.6, -1.6, -1.3, 1.3, -0.2, 0.2 /
&OBST XB = -1.7000000000000002, 1.7000000000000002, -1.2000000000000002, 1.2000000000000002, -0.2, 0.2 /
&OBST XB = 1.7000000000000002, -1.7000000000000002, -1.2000000000000002, 1.2000000000000002, -0.2, 0.2 /
&OBST XB = -1.8, 1.8, -1.0, 1.0, -0.2, 0.2 /
&OBST XB = 1.8, -1.8, -1.0, 1.0, -0.2, 0.2 /
&OBST XB = -1.9000000000000001, 1.9000000000000001, -0.8, 0.8, -0.2, 0.2 /
&OBST XB = 1.9000000000000001, -1.9000000000000001, -0.8, 0.8, -0.2, 0.2 /
&OBST XB = -2.0, 2.0, -0.5, 0.5, -0.2, 0.2 /
&OBST XB = 2.0, -2.0, -0.5, 0.5, -0.2, 0.2 /
&OBST XB = -0.1, 0.1, -2.0, 2.0, -0.3, 0.3 /
&OBST XB = 0.1, -0.1, -2.0, 2.0, -0.3, 0.3 /
&OBST XB = -0.2, 0.2, -2.0, 2.0, -0.3, 0.3 /
&OBST XB = 0.2, -0.2, -2.0, 2.0, -0.3, 0.3 /
&OBST XB = -0.30000000000000004, 0.30000000000000004, -2.0, 2.0, -0.3, 0.3 /
&OBST XB = 0.30000000000000004, -0.30000000000000004, -2.0, 2.0, -0.3, 0.3 /
&OBST XB = -0.4, 0.4, -2.0, 2.0, -0.3, 0.3 /
&OBST XB = 0.4, -0.4, -2.0, 2.0, -0.3, 0.3 /
&OBST XB = -0.5, 0.5, -2.0, 2.0, -0.3, 0.3 /
&OBST XB = 0.5, -0.5, -2.0, 2.0, -0.3, 0.3 /
&OBST XB = -0.6000000000000001, 0.6000000000000001, -2.0, 2.0, -0.3, 0.3 /
&OBST XB = 0.6000000000000001, -0.6000000000000001, -2.0, 2.0, -0.3, 0.3 /
&OBST XB = -0.7000000000000001, 0.7000000000000001, -1.9000000000000001, 1.9000000000000001, -0.3, 0.3 /
&OBST XB = 0.7000000000000001, -0.7000000000000001, -1.9000000000000001, 1.9000000000000001, -0.3, 0.3 /
&OBST XB = -0.8, 0.8, -1.9000000000000001, 1.9000000000000001, -0.3, 0.3 /
&OBST XB = 0.8, -0.8, -1.9000000000000001, 1.9000000000000001, -0.3, 0.3 /
&OBST XB = -0.9, 0.9, -1.8, 1.8, -0.3, 0.3 /
&OBST XB = 0.9, -0.9, -1.8, 1.8, -0.3, 0.3 /
&OBST XB = -1.0, 1.0, -1.8, 1.8, -0.3, 0.3 /
&OBST XB = 1.0, -1.0, -1.8, 1.8, -0.3, 0.3 /
&OBST XB = -1.1, 1.1, -1.7000000000000002, 1.7000000000000002, -0.3, 0.3 /
&OBST XB = 1.1, -1.1, -1.7000000000000002, 1.7000000000000002, -0.3, 0.3 /
&OBST XB = -1.2000000000000002, 1.2000000000000002, -1.7000000000000002, 1.7000000000000002, -0.3, 0.3 /
&OBST XB = 1.2000000000000002, -1.2000000000000002, -1.7000000000000002, 1.7000000000000002, -0.3, 0.3 /
&OBST XB = -1.3, 1.3, -1.6, 1.6, -0.3, 0.3 /
&OBST XB = 1.3, -1.3, -1.6, 1.6, -0.3, 0.3 /
&OBST XB = -1.4000000000000001, 1.4000000000000001, -1.5, 1.5, -0.3, 0.3 /
&OBST XB = 1.4000000000000001, -1.4000000000000001, -1.5, 1.5, -0.3, 0.3 /
&OBST XB = -1.5, 1.5, -1.4000000000000001, 1.4000000000000001, -0.3, 0.3 /
&OBST XB = 1.5, -1.5, -1.4000000000000001, 1.4000000000000001, -0.3, 0.3 /
&OBST XB = -1.6, 1.6, -1.3, 1.3, -0.3, 0.3 /
&OBST XB = 1.6, -1.6, -1.3, 1.3, -0.3, 0.3 /
&OBST XB = -1.7000000000000002, 1.7000000000000002, -1.2000000000000002, 1.2000000000000002, -0.3, 0.3 /
&OBST XB = 1.7000000000000002, -1.7000000000000002, -1.2000000000000002, 1.2000000000000002, -0.3, 0.3 /
&OBST XB = -1.8, 1.8, -1.0, 1.0, -0.3, 0.3 /
&OBST XB = 1.8, -1.8, -1.0, 1.0, -0.3, 0.3 /
&OBST XB = -1.9000000000000001, 1.9000000000000001, -0.8, 0.8, -0.3, 0.3 /
&OBST XB = 1.9000000000000001, -1.9000000000000001, -0.8, 0.8, -0.3, 0.3 /
&OBST XB = -2.0, 2.0, -0.4, 0.4, -0.3, 0.3 /
&OBST XB = 2.0, -2.0, -0.4, 0.4, -0.3, 0.3 /
&OBST XB = -0.1, 0.1, -2.0, 2.0, -0.39999999999999997, 0.39999999999999997 /
&OBST XB = 0.1, -0.1, -2.0, 2.0, -0.39999999999999997, 0.39999999999999997 /
&OBST XB = -0.2, 0.2, -2.0, 2.0, -0.39999999999999997, 0.39999999999999997 /
&OBST XB = 0.2, -0.2, -2.0, 2.0, -0.39999999999999997, 0.39999999999999997 /
&OBST XB = -0.30000000000000004, 0.30000000000000004, -2.0, 2.0, -0.39999999999999997, 0.39999999999999997 /
&OBST XB = 0.30000000000000004, -0.30000000000000004, -2.0, 2.0, -0.39999999999999997, 0.39999999999999997 /
&OBST XB = -0.4, 0.4, -2.0, 2.0, -0.39999999999999997, 0.39999999999999997 /
&OBST XB = 0.4, -0.4, -2.0, 2.0, -0.39999999999999997, 0.39999999999999997 /
&OBST XB = -0.5, 0.5, -2.0, 2.0, -0.39999999999999997, 0.39999999999999997 /
&OBST XB = 0.5, -0.5, -2.0, 2.0, -0.39999999999999997, 0.39999999999999997 /
&OBST XB = -0.6000000000000001, 0.6000000000000001, -1.9000000000000001, 1.9000000000000001, -0.39999999999999997, 0.39999999999999997 /
&OBST XB = 0.6000000000000001, -0.6000000000000001, -1.9000000000000001, 1.9000000000000001, -0.39999999999999997, 0.39999999999999997 /
&OBST XB = -0.7000000000000001, 0.7000000000000001, -1.9000000000000001, 1.9000000000000001, -0.39999999999999997, 0.39999999999999997 /
&OBST XB = 0.7000000000000001, -0.7000000000000001, -1.9000000000000001, 1.9000000000000001, -0.39999999999999997, 0.39999999999999997 /
&OBST XB = -0.8, 0.8, -1.9000000000000001, 1.9000000000000001, -0.39999999999999997, 0.39999999999999997 /
&OBST XB = 0.8, -0.8, -1.9000000000000001, 1.9000000000000001, -0.39999999999999997, 0.39999999999999997 /
&OBST XB = -0.9, 0.9, -1.8, 1.8, -0.39999999999999997, 0.39999999999999997 /
&OBST XB = 0.9, -0.9, -1.8, 1.8, -0.39999999999999997, 0.39999999999999997 /
&OBST XB = -1.0, 1.0, -1.8, 1.8, -0.39999999999999997, 0.39999999999999997 /
&OBST XB = 1.0, -1.0, -1.8, 1.8, -0.39999999999999997, 0.39999999999999997 /
&OBST XB = -1.1, 1.1, -1.7000000000000002, 1.7000000000000002, -0.39999999999999997, 0.39999999999999997 /
&OBST XB = 1.1, -1.1, -1.7000000000000002, 1.7000000000000002, -0.39999999999999997, 0.39999999999999997 /
&OBST XB = -1.2000000000000002, 1.2000000000000002, -1.6, 1.6, -0.39999999999999997, 0.39999999999999997 /
&OBST XB = 1.2000000000000002, -1.2000000000000002, -1.6, 1.6, -0.39999999999999997, 0.39999999999999997 /
&OBST XB = -1.3, 1.3, -1.6, 1.6, -0.39999999999999997, 0.39999999999999997 /
&OBST XB = 1.3, -1.3, -1.6, 1.6, -0.39999999999999997, 0.39999999999999997 /
&OBST XB = -1.4000000000000001, 1.4000000000000001, -1.5, 1.5, -0.39999999999999997, 0.39999999999999997 /
&OBST XB = 1.4000000000000001, -1.4000000000000001, -1.5, 1.5, -0.39999999999999997, 0.39999999999999997 /
&OBST XB = -1.5, 1.5, -1.4000000000000001, 1.4000000000000001, -0.39999999999999997, 0.39999999999999997 /
&OBST XB = 1.5, -1.5, -1.4000000000000001, 1.4000000000000001, -0.39999999999999997, 0.39999999999999997 /
&OBST XB = -1.6, 1.6, -1.3, 1.3, -0.39999999999999997, 0.39999999999999997 /
&OBST XB = 1.6, -1.6, -1.3, 1.3, -0.39999999999999997, 0.39999999999999997 /
&OBST XB = -1.7000000000000002, 1.7000000000000002, -1.1, 1.1, -0.39999999999999997, 0.39999999999999997 /
&OBST XB = 1.7000000000000002, -1.7000000000000002, -1.1, 1.1, -0.39999999999999997, 0.39999999999999997 /
&OBST XB = -1.8, 1.8, -1.0, 1.0, -0.39999999999999997, 0.39999999999999997 /
&OBST XB = 1.8, -1.8, -1.0, 1.0, -0.39999999999999997, 0.39999999999999997 /
&OBST XB = -1.9000000000000001, 1.9000000000000001, -0.7000000000000001, 0.7000000000000001, -0.39999999999999997, 0.39999999999999997 /
&OBST XB = 1.9000000000000001, -1.9000000000000001, -0.7000000000000001, 0.7000000000000001, -0.39999999999999997, 0.39999999999999997 /
&OBST XB = -2.0, 2.0, -0.30000000000000004, 0.30000000000000004, -0.39999999999999997, 0.39999999999999997 /
&OBST XB = 2.0, -2.0, -0.30000000000000004, 0.30000000000000004, -0.39999999999999997, 0.39999999999999997 /
&OBST XB = -0.1, 0.1, -2.0, 2.0, -0.49999999999999994, 0.49999999999999994 /
&OBST XB = 0.1, -0.1, -2.0, 2.0, -0.49999999999999994, 0.49999999999999994 /
&OBST XB = -0.2, 0.2, -2.0, 2.0, -0.49999999999999994, 0.49999999999999994 /
&OBST XB = 0.2, -0.2, -2.0, 2.0, -0.49999999999999994, 0.49999999999999994 /
&OBST XB = -0.30000000000000004, 0.30000000000000004, -2.0, 2.0, -0.49999999999999994, 0.49999999999999994 /
&OBST XB = 0.30000000000000004, -0.30000000000000004, -2.0, 2.0, -0.49999999999999994, 0.49999999999999994 /
&OBST XB = -0.4, 0.4, -2.0, 2.0, -0.49999999999999994, 0.49999999999999994 /
&OBST XB = 0.4, -0.4, -2.0, 2.0, -0.49999999999999994, 0.49999999999999994 /
&OBST XB = -0.5, 0.5, -1.9000000000000001, 1.9000000000000001, -0.49999999999999994, 0.49999999999999994 /
&OBST XB = 0.5, -0.5, -1.9000000000000001, 1.9000000000000001, -0.49999999999999994, 0.49999999999999994 /
&OBST XB = -0.6000000000000001, 0.6000000000000001, -1.9000000000000001, 1.9000000000000001, -0.49999999999999994, 0.49999999999999994 /
&OBST XB = 0.6000000000000001, -0.6000000000000001, -1.9000000000000001, 1.9000000000000001, -0.49999999999999994, 0.49999999999999994 /
&OBST XB = -0.7000000000000001, 0.7000000000000001, -1.9000000000000001, 1.9000000000000001, -0.49999999999999994, 0.49999999999999994 /
&OBST XB = 0.7000000000000001, -0.7000000000000001, -1.9000000000000001, 1.9000000000000001, -0.49999999999999994, 0.49999999999999994 /
&OBST XB = -0.8, 0.8, -1.8, 1.8, -0.49999999999999994, 0.49999999999999994 /
&OBST XB = 0.8, -0.8, -1.8, 1.8, -0.49999999999999994, 0.49999999999999994 /
&OBST XB = -0.9, 0.9, -1.8, 1.8, -0.49999999999999994, 0.49999999999999994 /
&OBST XB = 0.9, -0.9, -1.8, 1.8, -0.49999999999999994, 0.49999999999999994 /
&OBST XB = -1.0, 1.0, -1.8, 1.8, -0.49999999999999994, 0.49999999999999994 /
&OBST XB = 1.0, -1.0, -1.8, 1.8, -0.49999999999999994, 0.49999999999999994 /
&OBST XB = -1.1, 1.1, -1.7000000000000002, 1.7000000000000002, -0.49999999999999994, 0.49999999999999994 /
&OBST XB = 1.1, -1.1, -1.7000000000000002, 1.7000000000000002, -0.49999999999999994, 0.49999999999999994 /
&OBST XB = -1.2000000000000002, 1.2000000000000002, -1.6, 1.6, -0.49999999999999994, 0.49999999999999994 /
&OBST XB = 1.2000000000000002, -1.2000000000000002, -1.6, 1.6, -0.49999999999999994, 0.49999999999999994 /
&OBST XB = -1.3, 1.3, -1.5, 1.5, -0.49999999999999994, 0.49999999999999994 /
&OBST XB = 1.3, -1.3, -1.5, 1.5, -0.49999999999999994, 0.49999999999999994 /
&OBST XB = -1.4000000000000001, 1.4000000000000001, -1.5, 1.5, -0.49999999999999994, 0.49999999999999994 /
&OBST XB = 1.4000000000000001, -1.4000000000000001, -1.5, 1.5, -0.49999999999999994, 0.49999999999999994 /
&OBST XB = -1.5, 1.5, -1.4000000000000001, 1.4000000000000001, -0.49999999999999994, 0.49999999999999994 /
&OBST XB = 1.5, -1.5, -1.4000000000000001, 1.4000000000000001, -0.49999999999999994, 0.49999999999999994 /
&OBST XB = -1.6, 1.6, -1.2000000000000002, 1.2000000000000002, -0.49999999999999994, 0.49999999999999994 /
&OBST XB = 1.6, -1.6, -1.2000000000000002, 1.2000000000000002, -0.49999999999999994, 0.49999999999999994 /
&OBST XB = -1.7000000000000002, 1.7000000000000002, -1.1, 1.1, -0.49999999999999994, 0.49999999999999994 /
&OBST XB = 1.7000000000000002, -1.7000000000000002, -1.1, 1.1, -0.49999999999999994, 0.49999999999999994 /
&OBST XB = -1.8, 1.8, -0.9, 0.9, -0.49999999999999994, 0.49999999999999994 /
&OBST XB = 1.8, -1.8, -0.9, 0.9, -0.49999999999999994, 0.49999999999999994 /
&OBST XB = -1.9000000000000001, 1.9000000000000001, -0.7000000000000001, 0.7000000000000001, -0.49999999999999994, 0.49999999999999994 /
&OBST XB = 1.9000000000000001, -1.9000000000000001, -0.7000000000000001, 0.7000000000000001, -0.49999999999999994, 0.49999999999999994 /
&OBST XB = -0.1, 0.1, -2.0, 2.0, -0.6, 0.6 /
&OBST XB = 0.1, -0.1, -2.0, 2.0, -0.6, 0.6 /
&OBST XB = -0.2, 0.2, -2.0, 2.0, -0.6, 0.6 /
&OBST XB = 0.2, -0.2, -2.0, 2.0, -0.6, 0.6 /
&OBST XB = -0.30000000000000004, 0.30000000000000004, -2.0, 2.0, -0.6, 0.6 /
&OBST XB = 0.30000000000000004, -0.30000000000000004, -2.0, 2.0, -0.6, 0.6 /
&OBST XB = -0.4, 0.4, -1.9000000000000001, 1.9000000000000001, -0.6, 0.6 /
&OBST XB = 0.4, -0.4, -1.9000000000000001, 1.9000000000000001, -0.6, 0.6 /
&OBST XB = -0.5, 0.5, -1.9000000000000001, 1.9000000000000001, -0.6, 0.6 /
&OBST XB = 0.5, -0.5, -1.9000000000000001, 1.9000000000000001, -0.6, 0.6 /
&OBST XB = -0.6000000000000001, 0.6000000000000001, -1.9000000000000001, 1.9000000000000001, -0.6, 0.6 /
&OBST XB = 0.6000000000000001, -0.6000000000000001, -1.9000000000000001, 1.9000000000000001, -0.6, 0.6 /
&OBST XB = -0.7000000000000001, 0.7000000000000001, -1.9000000000000001, 1.9000000000000001, -0.6, 0.6 /
&OBST XB = 0.7000000000000001, -0.7000000000000001, -1.9000000000000001, 1.9000000000000001, -0.6, 0.6 /
&OBST XB = -0.8, 0.8, -1.8, 1.8, -0.6, 0.6 /
&OBST XB = 0.8, -0.8, -1.8, 1.8, -0.6, 0.6 /
&OBST XB = -0.9, 0.9, -1.8, 1.8, -0.6, 0.6 /
&OBST XB = 0.9, -0.9, -1.8, 1.8, -0.6, 0.6 /
&OBST XB = -1.0, 1.0, -1.7000000000000002, 1.7000000000000002, -0.6, 0.6 /
&OBST XB = 1.0, -1.0, -1.7000000000000002, 1.7000000000000002, -0.6, 0.6 /
&OBST XB = -1.1, 1.1, -1.7000000000000002, 1.7000000000000002, -0.6, 0.6 /
&OBST XB = 1.1, -1.1, -1.7000000000000002, 1.7000000000000002, -0.6, 0.6 /
&OBST XB = -1.2000000000000002, 1.2000000000000002, -1.6, 1.6, -0.6, 0.6 /
&OBST XB = 1.2000000000000002, -1.2000000000000002, -1.6, 1.6, -0.6, 0.6 /
&OBST XB = -1.3, 1.3, -1.5, 1.5, -0.6, 0.6 /
&OBST XB = 1.3, -1.3, -1.5, 1.5, -0.6, 0.6 /
&OBST XB = -1.4000000000000001, 1.4000000000000001, -1.4000000000000001, 1.4000000000000001, -0.6, 0.6 /
&OBST XB = 1.4000000000000001, -1.4000000000000001, -1.4000000000000001, 1.4000000000000001, -0.6, 0.6 /
&OBST XB = -1.5, 1.5, -1.3, 1.3, -0.6, 0.6 /
&OBST XB = 1.5, -1.5, -1.3, 1.3, -0.6, 0.6 /
&OBST XB = -1.6, 1.6, -1.2000000000000002, 1.2000000000000002, -0.6, 0.6 /
&OBST XB = 1.6, -1.6, -1.2000000000000002, 1.2000000000000002, -0.6, 0.6 /
&OBST XB = -1.7000000000000002, 1.7000000000000002, -1.0, 1.0, -0.6, 0.6 /
&OBST XB = 1.7000000000000002, -1.7000000000000002, -1.0, 1.0, -0.6, 0.6 /
&OBST XB = -1.8, 1.8, -0.8, 0.8, -0.6, 0.6 /
&OBST XB = 1.8, -1.8, -0.8, 0.8, -0.6, 0.6 /
&OBST XB = -1.9000000000000001, 1.9000000000000001, -0.6000000000000001, 0.6000000000000001, -0.6, 0.6 /
&OBST XB = 1.9000000000000001, -1.9000000000000001, -0.6000000000000001, 0.6000000000000001, -0.6, 0.6 /
&OBST XB = -0.1, 0.1, -1.9000000000000001, 1.9000000000000001, -0.7, 0.7 /
&OBST XB = 0.1, -0.1, -1.9000000000000001, 1.9000000000000001, -0.7, 0.7 /
&OBST XB = -0.2, 0.2, -1.9000000000000001, 1.9000000000000001, -0.7, 0.7 /
&OBST XB = 0.2, -0.2, -1.9000000000000001, 1.9000000000000001, -0.7, 0.7 /
&OBST XB = -0.30000000000000004, 0.30000000000000004, -1.9000000000000001, 1.9000000000000001, -0.7, 0.7 /
&OBST XB = 0.30000000000000004, -0.30000000000000004, -1.9000000000000001, 1.9000000000000001, -0.7, 0.7 /
&OBST XB = -0.4, 0.4, -1.9000000000000001, 1.9000000000000001, -0.7, 0.7 /
&OBST XB = 0.4, -0.4, -1.9000000000000001, 1.9000000000000001, -0.7, 0.7 /
&OBST XB = -0.5, 0.5, -1.9000000000000001, 1.9000000000000001, -0.7, 0.7 /
&OBST XB = 0.5, -0.5, -1.9000000000000001, 1.9000000000000001, -0.7, 0.7 /
&OBST XB = -0.6000000000000001, 0.6000000000000001, -1.9000000000000001, 1.9000000000000001, -0.7, 0.7 /
&OBST XB = 0.6000000000000001, -0.6000000000000001, -1.9000000000000001, 1.9000000000000001, -0.7, 0.7 /
&OBST XB = -0.7000000000000001, 0.7000000000000001, -1.8, 1.8, -0.7, 0.7 /
&OBST XB = 0.7000000000000001, -0.7000000000000001, -1.8, 1.8, -0.7, 0.7 /
&OBST XB = -0.8, 0.8, -1.8, 1.8, -0.7, 0.7 /
&OBST XB = 0.8, -0.8, -1.8, 1.8, -0.7, 0.7 /
&OBST XB = -0.9, 0.9, -1.7000000000000002, 1.7000000000000002, -0.7, 0.7 /
&OBST XB = 0.9, -0.9, -1.7000000000000002, 1.7000000000000002, -0.7, 0.7 /
&OBST XB = -1.0, 1.0, -1.7000000000000002, 1.7000000000000002, -0.7, 0.7 /
&OBST XB = 1.0, -1.0, -1.7000000000000002, 1.7000000000000002, -0.7, 0.7 /
&OBST XB = -1.1, 1.1, -1.6, 1.6, -0.7, 0.7 /
&OBST XB = 1.1, -1.1, -1.6, 1.6, -0.7, 0.7 /
&OBST XB = -1.2000000000000002, 1.2000000000000002, -1.6, 1.6, -0.7, 0.7 /
&OBST XB = 1.2000000000000002, -1.2000000000000002, -1.6, 1.6, -0.7, 0.7 /
&OBST XB = -1.3, 1.3, -1.5, 1.5, -0.7, 0.7 /
&OBST XB = 1.3, -1.3, -1.5, 1.5, -0.7, 0.7 /
&OBST XB = -1.4000000000000001, 1.4000000000000001, -1.4000000000000001, 1.4000000000000001, -0.7, 0.7 /
&OBST XB = 1.4000000000000001, -1.4000000000000001, -1.4000000000000001, 1.4000000000000001, -0.7, 0.7 /
&OBST XB = -1.5, 1.5, -1.3, 1.3, -0.7, 0.7 /
&OBST XB = 1.5, -1.5, -1.3, 1.3, -0.7, 0.7 /
&OBST XB = -1.6, 1.6, -1.1, 1.1, -0.7, 0.7 /
&OBST XB = 1.6, -1.6, -1.1, 1.1, -0.7, 0.7 /
&OBST XB = -1.7000000000000002, 1.7000000000000002, -1.0, 1.0, -0.7, 0.7 /
&OBST XB = 1.7000000000000002, -1.7000000000000002, -1.0, 1.0, -0.7, 0.7 /
&OBST XB = -1.8, 1.8, -0.8, 0.8, -0.7, 0.7 /
&OBST XB = 1.8, -1.8, -0.8, 0.8, -0.7, 0.7 /
&OBST XB = -1.9000000000000001, 1.9000000000000001, -0.4, 0.4, -0.7, 0.7 /
&OBST XB = 1.9000000000000001, -1.9000000000000001, -0.4, 0.4, -0.7, 0.7 /
&OBST XB = -0.1, 0.1, -1.9000000000000001, 1.9000000000000001, -0.7999999999999999, 0.7999999999999999 /
&OBST XB = 0.1, -0.1, -1.9000000000000001, 1.9000000000000001, -0.7999999999999999, 0.7999999999999999 /
&OBST XB = -0.2, 0.2, -1.9000000000000001, 1.9000000000000001, -0.7999999999999999, 0.7999999999999999 /
&OBST XB = 0.2, -0.2, -1.9000000000000001, 1.9000000000000001, -0.7999999999999999, 0.7999999999999999 /
&OBST XB = -0.30000000000000004, 0.30000000000000004, -1.9000000000000001, 1.9000000000000001, -0.7999999999999999, 0.7999999999999999 /
&OBST XB = 0.30000000000000004, -0.30000000000000004, -1.9000000000000001, 1.9000000000000001, -0.7999999999999999, 0.7999999999999999 /
&OBST XB = -0.4, 0.4, -1.9000000000000001, 1.9000000000000001, -0.7999999999999999, 0.7999999999999999 /
&OBST XB = 0.4, -0.4, -1.9000000000000001, 1.9000000000000001, -0.7999999999999999, 0.7999999999999999 /
&OBST XB = -0.5, 0.5, -1.8, 1.8, -0.7999999999999999, 0.7999999999999999 /
&OBST XB = 0.5, -0.5, -1.8, 1.8, -0.7999999999999999, 0.7999999999999999 /
&OBST XB = -0.6000000000000001, 0.6000000000000001, -1.8, 1.8, -0.7999999999999999, 0.7999999999999999 /
&OBST XB = 0.6000000000000001, -0.6000000000000001, -1.8, 1.8, -0.7999999999999999, 0.7999999999999999 /
&OBST XB = -0.7000000000000001, 0.7000000000000001, -1.8, 1.8, -0.7999999999999999, 0.7999999999999999 /
&OBST XB = 0.7000000000000001, -0.7000000000000001, -1.8, 1.8, -0.7999999999999999, 0.7999999999999999 /
&OBST XB = -0.8, 0.8, -1.7000000000000002, 1.7000000000000002, -0.7999999999999999, 0.7999999999999999 /
&OBST XB = 0.8, -0.8, -1.7000000000000002, 1.7000000000000002, -0.7999999999999999, 0.7999999999999999 /
&OBST XB = -0.9, 0.9, -1.7000000000000002, 1.7000000000000002, -0.7999999999999999, 0.7999999999999999 /
&OBST XB = 0.9, -0.9, -1.7000000000000002, 1.7000000000000002, -0.7999999999999999, 0.7999999999999999 /
&OBST XB = -1.0, 1.0, -1.6, 1.6, -0.7999999999999999, 0.7999999999999999 /
&OBST XB = 1.0, -1.0, -1.6, 1.6, -0.7999999999999999, 0.7999999999999999 /
&OBST XB = -1.1, 1.1, -1.6, 1.6, -0.7999999999999999, 0.7999999999999999 /
&OBST XB = 1.1, -1.1, -1.6, 1.6, -0.7999999999999999, 0.7999999999999999 /
&OBST XB = -1.2000000000000002, 1.2000000000000002, -1.5, 1.5, -0.7999999999999999, 0.7999999999999999 /
&OBST XB = 1.2000000000000002, -1.2000000000000002, -1.5, 1.5, -0.7999999999999999, 0.7999999999999999 /
&OBST XB = -1.3, 1.3, -1.4000000000000001, 1.4000000000000001, -0.7999999999999999, 0.7999999999999999 /
&OBST XB = 1.3, -1.3, -1.4000000000000001, 1.4000000000000001, -0.7999999999999999, 0.7999999999999999 /
&OBST XB = -1.4000000000000001, 1.4000000000000001, -1.3, 1.3, -0.7999999999999999, 0.7999999999999999 /
&OBST XB = 1.4000000000000001, -1.4000000000000001, -1.3, 1.3, -0.7999999999999999, 0.7999999999999999 /
&OBST XB = -1.5, 1.5, -1.2000000000000002, 1.2000000000000002, -0.7999999999999999, 0.7999999999999999 /
&OBST XB = 1.5, -1.5, -1.2000000000000002, 1.2000000000000002, -0.7999999999999999, 0.7999999999999999 /
&OBST XB = -1.6, 1.6, -1.1, 1.1, -0.7999999999999999, 0.7999999999999999 /
&OBST XB = 1.6, -1.6, -1.1, 1.1, -0.7999999999999999, 0.7999999999999999 /
&OBST XB = -1.7000000000000002, 1.7000000000000002, -0.9, 0.9, -0.7999999999999999, 0.7999999999999999 /
&OBST XB = 1.7000000000000002, -1.7000000000000002, -0.9, 0.9, -0.7999999999999999, 0.7999999999999999 /
&OBST XB = -1.8, 1.8, -0.7000000000000001, 0.7000000000000001, -0.7999999999999999, 0.7999999999999999 /
&OBST XB = 1.8, -1.8, -0.7000000000000001, 0.7000000000000001, -0.7999999999999999, 0.7999999999999999 /
&OBST XB = -1.9000000000000001, 1.9000000000000001, -0.2, 0.2, -0.7999999999999999, 0.7999999999999999 /
&OBST XB = 1.9000000000000001, -1.9000000000000001, -0.2, 0.2, -0.7999999999999999, 0.7999999999999999 /
&OBST XB = -0.1, 0.1, -1.9000000000000001, 1.9000000000000001, -0.8999999999999999, 0.8999999999999999 /
&OBST XB = 0.1, -0.1, -1.9000000000000001, 1.9000000000000001, -0.8999999999999999, 0.8999999999999999 /
&OBST XB = -0.2, 0.2, -1.9000000000000001, 1.9000000000000001, -0.8999999999999999, 0.8999999999999999 /
&OBST XB = 0.2, -0.2, -1.9000000000000001, 1.9000000000000001, -0.8999999999999999, 0.8999999999999999 /
&OBST XB = -0.30000000000000004, 0.30000000000000004, -1.8, 1.8, -0.8999999999999999, 0.8999999999999999 /
&OBST XB = 0.30000000000000004, -0.30000000000000004, -1.8, 1.8, -0.8999999999999999, 0.8999999999999999 /
&OBST XB = -0.4, 0.4, -1.8, 1.8, -0.8999999999999999, 0.8999999999999999 /
&OBST XB = 0.4, -0.4, -1.8, 1.8, -0.8999999999999999, 0.8999999999999999 /
&OBST XB = -0.5, 0.5, -1.8, 1.8, -0.8999999999999999, 0.8999999999999999 /
&OBST XB = 0.5, -0.5, -1.8, 1.8, -0.8999999999999999, 0.8999999999999999 /
&OBST XB = -0.6000000000000001, 0.6000000000000001, -1.8, 1.8, -0.8999999999999999, 0.8999999999999999 /
&OBST XB = 0.6000000000000001, -0.6000000000000001, -1.8, 1.8, -0.8999999999999999, 0.8999999999999999 /
&OBST XB = -0.7000000000000001, 0.7000000000000001, -1.7000000000000002, 1.7000000000000002, -0.8999999999999999, 0.8999999999999999 /
&OBST XB = 0.7000000000000001, -0.7000000000000001, -1.7000000000000002, 1.7000000000000002, -0.8999999999999999, 0.8999999999999999 /
&OBST XB = -0.8, 0.8, -1.7000000000000002, 1.7000000000000002, -0.8999999999999999, 0.8999999999999999 /
&OBST XB = 0.8, -0.8, -1.7000000000000002, 1.7000000000000002, -0.8999999999999999, 0.8999999999999999 /
&OBST XB = -0.9, 0.9, -1.6, 1.6, -0.8999999999999999, 0.8999999999999999 /
&OBST XB = 0.9, -0.9, -1.6, 1.6, -0.8999999999999999, 0.8999999999999999 /
&OBST XB = -1.0, 1.0, -1.6, 1.6, -0.8999999999999999, 0.8999999999999999 /
&OBST XB = 1.0, -1.0, -1.6, 1.6, -0.8999999999999999, 0.8999999999999999 /
&OBST XB = -1.1, 1.1, -1.5, 1.5, -0.8999999999999999, 0.8999999999999999 /
&OBST XB = 1.1, -1.1, -1.5, 1.5, -0.8999999999999999, 0.8999999999999999 /
&OBST XB = -1.2000000000000002, 1.2000000000000002, -1.4000000000000001, 1.4000000000000001, -0.8999999999999999, 0.8999999999999999 /
&OBST XB = 1.2000000000000002, -1.2000000000000002, -1.4000000000000001, 1.4000000000000001, -0.8999999999999999, 0.8999999999999999 /
&OBST XB = -1.3, 1.3, -1.4000000000000001, 1.4000000000000001, -0.8999999999999999, 0.8999999999999999 /
&OBST XB = 1.3, -1.3, -1.4000000000000001, 1.4000000000000001, -0.8999999999999999, 0.8999999999999999 /
&OBST XB = -1.4000000000000001, 1.4000000000000001, -1.3, 1.3, -0.8999999999999999, 0.8999999999999999 /
&OBST XB = 1.4000000000000001, -1.4000000000000001, -1.3, 1.3, -0.8999999999999999, 0.8999999999999999 /
&OBST XB = -1.5, 1.5, -1.1, 1.1, -0.8999999999999999, 0.8999999999999999 /
&OBST XB = 1.5, -1.5, -1.1, 1.1, -0.8999999999999999, 0.8999999999999999 /
&OBST XB = -1.6, 1.6, -1.0, 1.0, -0.8999999999999999, 0.8999999999999999 /
&OBST XB = 1.6, -1.6, -1.0, 1.0, -0.8999999999999999, 0.8999999999999999 /
&OBST XB = -1.7000000000000002, 1.7000000000000002, -0.8, 0.8, -0.8999999999999999, 0.8999999999999999 /
&OBST XB = 1.7000000000000002, -1.7000000000000002, -0.8, 0.8, -0.8999999999999999, 0.8999999999999999 /
&OBST XB = -1.8, 1.8, -0.5, 0.5, -0.8999999999999999, 0.8999999999999999 /
&OBST XB = 1.8, -1.8, -0.5, 0.5, -0.8999999999999999, 0.8999999999999999 /
&OBST XB = -0.1, 0.1, -1.8, 1.8, -0.9999999999999999, 0.9999999999999999 /
&OBST XB = 0.1, -0.1, -1.8, 1.8, -0.9999999999999999, 0.9999999999999999 /
&OBST XB = -0.2, 0.2, -1.8, 1.8, -0.9999999999999999, 0.9999999999999999 /
&OBST XB = 0.2, -0.2, -1.8, 1.8, -0.9999999999999999, 0.9999999999999999 /
&OBST XB = -0.30000000000000004, 0.30000000000000004, -1.8, 1.8, -0.9999999999999999, 0.9999999999999999 /
&OBST XB = 0.30000000000000004, -0.30000000000000004, -1.8, 1.8, -0.9999999999999999, 0.9999999999999999 /
&OBST XB = -0.4, 0.4, -1.8, 1.8, -0.9999999999999999, 0.9999999999999999 /
&OBST XB = 0.4, -0.4, -1.8, 1.8, -0.9999999999999999, 0.9999999999999999 /
&OBST XB = -0.5, 0.5, -1.8, 1.8, -0.9999999999999999, 0.9999999999999999 /
&OBST XB = 0.5, -0.5, -1.8, 1.8, -0.9999999999999999, 0.9999999999999999 /
&OBST XB = -0.6000000000000001, 0.6000000000000001, -1.7000000000000002, 1.7000000000000002, -0.9999999999999999, 0.9999999999999999 /
&OBST XB = 0.6000000000000001, -0.6000000000000001, -1.7000000000000002, 1.7000000000000002, -0.9999999999999999, 0.9999999999999999 /
&OBST XB = -0.7000000000000001, 0.7000000000000001, -1.7000000000000002, 1.7000000000000002, -0.9999999999999999, 0.9999999999999999 /
&OBST XB = 0.7000000000000001, -0.7000000000000001, -1.7000000000000002, 1.7000000000000002, -0.9999999999999999, 0.9999999999999999 /
&OBST XB = -0.8, 0.8, -1.6, 1.6, -0.9999999999999999, 0.9999999999999999 /
&OBST XB = 0.8, -0.8, -1.6, 1.6, -0.9999999999999999, 0.9999999999999999 /
&OBST XB = -0.9, 0.9, -1.6, 1.6, -0.9999999999999999, 0.9999999999999999 /
&OBST XB = 0.9, -0.9, -1.6, 1.6, -0.9999999999999999, 0.9999999999999999 /
&OBST XB = -1.0, 1.0, -1.5, 1.5, -0.9999999999999999, 0.9999999999999999 /
&OBST XB = 1.0, -1.0, -1.5, 1.5, -0.9999999999999999, 0.9999999999999999 /
&OBST XB = -1.1, 1.1, -1.5, 1.5, -0.9999999999999999, 0.9999999999999999 /